
     RDKit          3D

 25 25  0  0  0  0  0  0  0  0999 V2000
    8.5840    0.6590   25.2230 C   0  0  0  0  0  0  0  0  0  0  0  0
    8.3560    1.8470   25.9290 C   0  0  0  0  0  0  0  0  0  0  0  0
    8.6910    3.0830   25.3770 C   0  0  0  0  0  0  0  0  0  0  0  0
    9.2650    3.1530   24.1090 C   0  0  0  0  0  0  0  0  0  0  0  0
    9.5020    1.9830   23.3980 C   0  0  0  0  0  0  0  0  0  0  0  0
    9.1660    0.7470   23.9490 C   0  0  0  0  0  0  0  0  0  0  0  0
    8.1740   -0.6640   25.7760 C   0  0  0  0  0  0  0  0  0  0  0  0
    7.3820   -0.8220   26.8880 N   0  0  0  0  0  0  0  0  0  0  0  0
    8.2780   -1.8070   25.0390 N   0  0  0  0  0  0  0  0  0  0  0  0
    7.8840    1.8280   26.9050 H   0  0  0  0  0  0  0  0  0  0  0  0
    8.4710    3.9970   25.9230 H   0  0  0  0  0  0  0  0  0  0  0  0
    9.5040    4.1120   23.6540 H   0  0  0  0  0  0  0  0  0  0  0  0
    9.9250    2.0430   22.3960 H   0  0  0  0  0  0  0  0  0  0  0  0
    9.3290   -0.1450   23.3470 H   0  0  0  0  0  0  0  0  0  0  0  0
    7.4340   -1.7710   27.2850 H   0  0  0  0  0  0  0  0  0  0  0  0
    7.4200   -0.0870   27.5840 H   0  0  0  0  0  0  0  0  0  0  0  0
    9.1410   -1.8700   24.5170 H   0  0  0  0  0  0  0  0  0  0  0  0
    8.1650   -2.6710   25.5820 H   0  0  0  0  0  0  0  0  0  0  0  0
    7.5839    0.7354   24.7714 H   0  0  0  0  0  0  0  0  0  0  0  0
    9.3589    1.7744   26.3751 H   0  0  0  0  0  0  0  0  0  0  0  0
    9.6925    3.0123   25.8265 H   0  0  0  0  0  0  0  0  0  0  0  0
   10.2665    3.0827   24.5585 H   0  0  0  0  0  0  0  0  0  0  0  0
   10.5029    1.9118   23.8487 H   0  0  0  0  0  0  0  0  0  0  0  0
   10.1663    0.6766   24.4011 H   0  0  0  0  0  0  0  0  0  0  0  0
    9.1422   -0.3808   26.2147 H   0  0  0  0  0  0  0  0  0  0  0  0
  2  1  1  0
  3  2  1  0
  4  3  1  0
  5  4  1  0
  6  5  1  0
  6  1  1  0
  7  1  1  0
  8  7  1  0
  9  7  1  0
 10  2  1  0
 11  3  1  0
 12  4  1  0
 13  5  1  0
 14  6  1  0
 15  8  1  0
 16  8  1  0
 17  9  1  0
 18  9  1  0
  1 19  1  0
  2 20  1  0
  3 21  1  0
  4 22  1  0
  5 23  1  0
  6 24  1  0
  7 25  1  0
M  END
> <KDEEP_PREDICTED_PKD_MEAN>
1.7853177445275443

> <KDEEP_PREDICTED_PKD_STD>
0.35581085585722366

> <KDEEP_PREDICTED_PIC50_MEAN>
1.7711478131158012

> <KDEEP_PREDICTED_PIC50_STD>
0.31400658967541606

> <KDEEP_PREDICTED_DG_MEAN>
-2.410178955112185

> <KDEEP_PREDICTED_DG_STD>
-0.48034465540725196

> <KDEEP_PREDICTED_LIGAND_EFFICIENCY_MEAN>
-0.26779766167913166

> <KDEEP_PREDICTED_LIGAND_EFFICIENCY_STD>
-0.05337162837858355

$$$$
